gridlabd-4/PG&E/OC0001.glm
// PG&E OC0001 Taxonomy Feeder Model

module powerflow
{
	solver_method NR;
	default_maximum_voltage_error 1e-4;
}

//*********************************************
// Conductor Objects
//*********************************************
// OHCond_1/0_AAC_I
object overhead_line_conductor {
	name OHCond_1/0_AAC_I;
	resistance 0.8820750323;
	geometric_mean_radius 0.0110971584;
	diameter 0.367999264;
}

// OHCond_2_CU_I
object overhead_line_conductor {
	name OHCond_2_CU_I;
	resistance 0.8920559109;
	geometric_mean_radius 0.0882773952;
	diameter 0.291999416;
}

// OHCond_715_AAC_C
object overhead_line_conductor {
	name OHCond_715_AAC_C;
	resistance 0.1324968876;
	geometric_mean_radius 0.0311920128;
	diameter 0.972998054;
}

// OHCond_1/0_AAC_C
object overhead_line_conductor {
	name OHCond_1/0_AAC_C;
	resistance 0.8820750323;
	geometric_mean_radius 0.0110971584;
	diameter 0.367999264;
}

// OHCond_4_ACSR_I
object overhead_line_conductor {
	name OHCond_4_ACSR_I;
	resistance 2.1715395317;
	geometric_mean_radius 0.0524265688;
	diameter 0.2499995;
}

// OHCond_4_CU_C
object overhead_line_conductor {
	name OHCond_4_CU_C;
	resistance 1.4181103321;
	geometric_mean_radius 0.006998208;
	diameter 0.231999536;
}

// OHCond_397_AAC_C
object overhead_line_conductor {
	name OHCond_397_AAC_C;
	resistance 0.2354936969;
	geometric_mean_radius 0.0227941632;
	diameter 0.722998554;
}

// OHCond_1/0_CU_C
object overhead_line_conductor {
	name OHCond_1/0_CU_C;
	resistance 0.5615250025;
	geometric_mean_radius 0.0111371416;
	diameter 0.367999264;
}

// OHCond_4/0_AAC_C
object overhead_line_conductor {
	name OHCond_4/0_AAC_C;
	resistance 0.4406874934;
	geometric_mean_radius 0.015765976;
	diameter 0.521998956;
}

// OHCond_6_CU_I
object overhead_line_conductor {
	name OHCond_6_CU_I;
	resistance 2.2113584416;
	geometric_mean_radius 0.00525866;
	diameter 0.161999676;
}

// OHCond_DEFAULT
object overhead_line_conductor {
	name OHCond_DEFAULT;
	resistance 0.27792611;
	geometric_mean_radius 0.01667552;
	diameter 0.52799107;
}

// OHCond_4/0_ACSR_C
object overhead_line_conductor {
	name OHCond_4/0_ACSR_C;
	resistance 0.4287883292;
	geometric_mean_radius 0.0976549808;
	diameter 0.562998874;
}

// OHCond_4_ACSR_C
object overhead_line_conductor {
	name OHCond_4_ACSR_C;
	resistance 2.1715395317;
	geometric_mean_radius 0.0524265688;
	diameter 0.2499995;
}

// OHCond_397_AAC_I
object overhead_line_conductor {
	name OHCond_397_AAC_I;
	resistance 0.2354936969;
	geometric_mean_radius 0.0227941632;
	diameter 0.722998554;
}

// OHCond_2_CU_C
object overhead_line_conductor {
	name OHCond_2_CU_C;
	resistance 0.8920559109;
	geometric_mean_radius 0.0882773952;
	diameter 0.291999416;
}

// OHCond_6_CU_C
object overhead_line_conductor {
	name OHCond_6_CU_C;
	resistance 2.2113584416;
	geometric_mean_radius 0.00525866;
	diameter 0.161999676;
}

// UGCable_2_AL_PEC_22KV_3P
object underground_line_conductor {
	name UGCable_2_AL_PEC_22KV_3P;
	outer_diameter 0.6692917;
	conductor_gmr 0.01667552;
	conductor_diameter 0.52799107;
	conductor_resistance 0.27792611;
	neutral_gmr 0.01667552;
	neutral_resistance 0.27792611;
	neutral_diameter 0.52799107;
	neutral_strands 2;
}

// UGCable_1/0_AL_XLP-CON-ENCP-PE_22KV_3P
object underground_line_conductor {
	name UGCable_1/0_AL_XLP-CON-ENCP-PE_22KV_3P;
	outer_diameter 0.669290518897;
	conductor_gmr 0.01667552;
	conductor_diameter 0.52799107;
	conductor_resistance 0.27792611;
	neutral_gmr 0.01667552;
	neutral_resistance 0.27792611;
	neutral_diameter 0.52799107;
	neutral_strands 2;
}

// UGCable_2_AL_XLP-CONC-ENCAP-PE_22KV_2P
object underground_line_conductor {
	name UGCable_2_AL_XLP-CONC-ENCAP-PE_22KV_2P;
	outer_diameter 0.669290518897;
	conductor_gmr 0.01667552;
	conductor_diameter 0.52799107;
	conductor_resistance 0.27792611;
	neutral_gmr 0.01667552;
	neutral_resistance 0.27792611;
	neutral_diameter 0.52799107;
	neutral_strands 2;
}

// UGCable_2_AL_XLP-CONC-PVC_22KV_3P
object underground_line_conductor {
	name UGCable_2_AL_XLP-CONC-PVC_22KV_3P;
	outer_diameter 0.6692917;
	conductor_gmr 0.01667552;
	conductor_diameter 0.52799107;
	conductor_resistance 0.27792611;
	neutral_gmr 0.01667552;
	neutral_resistance 0.27792611;
	neutral_diameter 0.52799107;
	neutral_strands 2;
}

// UGCable_1100_AL_EPR-CONC-ENCAP-PE_3P
object underground_line_conductor {
	name UGCable_1100_AL_EPR-CONC-ENCAP-PE_3P;
	outer_diameter 0.6692917;
	conductor_gmr 0.01667552;
	conductor_diameter 0.52799107;
	conductor_resistance 0.27792611;
	neutral_gmr 0.01667552;
	neutral_resistance 0.27792611;
	neutral_diameter 0.52799107;
	neutral_strands 2;
}

// UGCable_1/0_AL_XLP-CONC-PVC_22KV_3P
object underground_line_conductor {
	name UGCable_1/0_AL_XLP-CONC-PVC_22KV_3P;
	outer_diameter 0.669290518897;
	conductor_gmr 0.01667552;
	conductor_diameter 0.52799107;
	conductor_resistance 0.27792611;
	neutral_gmr 0.01667552;
	neutral_resistance 0.27792611;
	neutral_diameter 0.52799107;
	neutral_strands 2;
}

// UGCable_1/0_AL_XLP-CON-ENCP-PE_22KV_2P
object underground_line_conductor {
	name UGCable_1/0_AL_XLP-CON-ENCP-PE_22KV_2P;
	outer_diameter 0.669290518897;
	conductor_gmr 0.01667552;
	conductor_diameter 0.52799107;
	conductor_resistance 0.27792611;
	neutral_gmr 0.01667552;
	neutral_resistance 0.27792611;
	neutral_diameter 0.52799107;
	neutral_strands 2;
}

// UGCable_700_AL_XLP-CONC-PVC_22KV_3P
object underground_line_conductor {
	name UGCable_700_AL_XLP-CONC-PVC_22KV_3P;
	outer_diameter 0.6692917;
	conductor_gmr 0.01667552;
	conductor_diameter 0.52799107;
	conductor_resistance 0.27792611;
	neutral_gmr 0.01667552;
	neutral_resistance 0.27792611;
	neutral_diameter 0.52799107;
	neutral_strands 2;
}

// UGCable_2_AL_XLP-CONC-CIC_22KV_2P
object underground_line_conductor {
	name UGCable_2_AL_XLP-CONC-CIC_22KV_2P;
	outer_diameter 0.669290518897;
	conductor_gmr 0.01667552;
	conductor_diameter 0.52799107;
	conductor_resistance 0.27792611;
	neutral_gmr 0.01667552;
	neutral_resistance 0.27792611;
	neutral_diameter 0.52799107;
	neutral_strands 2;
}

// UGCable_1/0_AL_EPR-CONC-ENCAP-PE_3P
object underground_line_conductor {
	name UGCable_1/0_AL_EPR-CONC-ENCAP-PE_3P;
	outer_diameter 0.669290518897;
	conductor_gmr 0.01667552;
	conductor_diameter 0.52799107;
	conductor_resistance 0.27792611;
	neutral_gmr 0.01667552;
	neutral_resistance 0.27792611;
	neutral_diameter 0.52799107;
	neutral_strands 2;
}

// UGCable_2_AL_XLP-PVC_15KV_3P
object underground_line_conductor {
	name UGCable_2_AL_XLP-PVC_15KV_3P;
	outer_diameter 0.6692917;
	conductor_gmr 0.01667552;
	conductor_diameter 0.52799107;
	conductor_resistance 0.27792611;
	neutral_gmr 0.01667552;
	neutral_resistance 0.27792611;
	neutral_diameter 0.52799107;
	neutral_strands 2;
}

// UGCable_1000_AL_XLP-CONC-PVC_22KV_3P
object underground_line_conductor {
	name UGCable_1000_AL_XLP-CONC-PVC_22KV_3P;
	outer_diameter 0.6692917;
	conductor_gmr 0.01667552;
	conductor_diameter 0.52799107;
	conductor_resistance 0.27792611;
	neutral_gmr 0.01667552;
	neutral_resistance 0.27792611;
	neutral_diameter 0.52799107;
	neutral_strands 2;
}

// UGCable_2_AL_XLP-PVC_22KV_3P
object underground_line_conductor {
	name UGCable_2_AL_XLP-PVC_22KV_3P;
	outer_diameter 0.6692917;
	conductor_gmr 0.01667552;
	conductor_diameter 0.52799107;
	conductor_resistance 0.27792611;
	neutral_gmr 0.01667552;
	neutral_resistance 0.27792611;
	neutral_diameter 0.52799107;
	neutral_strands 2;
}

// UGCable_4/0_AL_XLP-CONC-PVC_22KV_3P
object underground_line_conductor {
	name UGCable_4/0_AL_XLP-CONC-PVC_22KV_3P;
	outer_diameter 0.6692917;
	conductor_gmr 0.01667552;
	conductor_diameter 0.52799107;
	conductor_resistance 0.27792611;
	neutral_gmr 0.01667552;
	neutral_resistance 0.27792611;
	neutral_diameter 0.52799107;
	neutral_strands 2;
}

// UGCable_DEFAULT
object underground_line_conductor {
	name UGCable_DEFAULT;
	outer_diameter 0.6692917;
	conductor_gmr 0.01667552;
	conductor_diameter 0.52799107;
	conductor_resistance 0.27792611;
	neutral_gmr 0.01667552;
	neutral_resistance 0.27792611;
	neutral_diameter 0.52799107;
	neutral_strands 2;
}

// UGCable_2_AL_XLP-CONC-ENCAP-PE_22KV_3P
object underground_line_conductor {
	name UGCable_2_AL_XLP-CONC-ENCAP-PE_22KV_3P;
	outer_diameter 0.6692917;
	conductor_gmr 0.01667552;
	conductor_diameter 0.52799107;
	conductor_resistance 0.27792611;
	neutral_gmr 0.01667552;
	neutral_resistance 0.27792611;
	neutral_diameter 0.52799107;
	neutral_strands 2;
}

// UGCable_1/0_AL_XLP-CONC-PVC_22KV_2P
object underground_line_conductor {
	name UGCable_1/0_AL_XLP-CONC-PVC_22KV_2P;
	outer_diameter 0.669290518897;
	conductor_gmr 0.01667552;
	conductor_diameter 0.52799107;
	conductor_resistance 0.27792611;
	neutral_gmr 0.01667552;
	neutral_resistance 0.27792611;
	neutral_diameter 0.52799107;
	neutral_strands 2;
}

// UGCable_2_AL_PEC_22KV_2P
object underground_line_conductor {
	name UGCable_2_AL_PEC_22KV_2P;
	outer_diameter 0.669290518897;
	conductor_gmr 0.01667552;
	conductor_diameter 0.52799107;
	conductor_resistance 0.27792611;
	neutral_gmr 0.01667552;
	neutral_resistance 0.27792611;
	neutral_diameter 0.52799107;
	neutral_strands 2;
}

// UGCable_1/0_AL_EPR-CONC-PVC_22KV_3P
object underground_line_conductor {
	name UGCable_1/0_AL_EPR-CONC-PVC_22KV_3P;
	outer_diameter 0.6692917;
	conductor_gmr 0.01667552;
	conductor_diameter 0.52799107;
	conductor_resistance 0.27792611;
	neutral_gmr 0.01667552;
	neutral_resistance 0.27792611;
	neutral_diameter 0.52799107;
	neutral_strands 2;
}

// UGCable_1/0_AL_EPR-CONC-ENCAP-PE_2P
object underground_line_conductor {
	name UGCable_1/0_AL_EPR-CONC-ENCAP-PE_2P;
	outer_diameter 0.669290518897;
	conductor_gmr 0.01667552;
	conductor_diameter 0.52799107;
	conductor_resistance 0.27792611;
	neutral_gmr 0.01667552;
	neutral_resistance 0.27792611;
	neutral_diameter 0.52799107;
	neutral_strands 2;
}

// UGCable_2_AL_XLP-CONC-CIC_22KV_3P
object underground_line_conductor {
	name UGCable_2_AL_XLP-CONC-CIC_22KV_3P;
	outer_diameter 0.6692917;
	conductor_gmr 0.01667552;
	conductor_diameter 0.52799107;
	conductor_resistance 0.27792611;
	neutral_gmr 0.01667552;
	neutral_resistance 0.27792611;
	neutral_diameter 0.52799107;
	neutral_strands 2;
}

// UGCable_2_AL_XLP-CONC-PVC_22KV_2P
object underground_line_conductor {
	name UGCable_2_AL_XLP-CONC-PVC_22KV_2P;
	outer_diameter 0.669290518897;
	conductor_gmr 0.01667552;
	conductor_diameter 0.52799107;
	conductor_resistance 0.27792611;
	neutral_gmr 0.01667552;
	neutral_resistance 0.27792611;
	neutral_diameter 0.52799107;
	neutral_strands 2;
}

// UGCable_1000_AL_XLP-CONC-PVC_15KV_3P
object underground_line_conductor {
	name UGCable_1000_AL_XLP-CONC-PVC_15KV_3P;
	outer_diameter 0.6692917;
	conductor_gmr 0.01667552;
	conductor_diameter 0.52799107;
	conductor_resistance 0.27792611;
	neutral_gmr 0.01667552;
	neutral_resistance 0.27792611;
	neutral_diameter 0.52799107;
	neutral_strands 2;
}

//*********************************************
// Line spacing objects
//*********************************************
// OHSpacing_HORIZONTAL_2P_88
object line_spacing {
	name OHSpacing_HORIZONTAL_2P_88;
	distance_AB 7.3332408792;
	distance_BC 7.3332408792;
	distance_AC 7.3332408792;
	distance_AN 9.9998784;
	distance_BN 9.9998784;
	distance_CN 9.9998784;
}

// OHSpacing_TRIANGULAR_3P_52
object line_spacing {
	name OHSpacing_TRIANGULAR_3P_52;
	distance_AB 4.3332773592;
	distance_BC 4.3332773592;
	distance_AC 4.3332773592;
	distance_AN 6.6665888808;
	distance_BN 6.6665888808;
	distance_CN 6.6665888808;
}

// UGSpacing_2_AL_XLP-CONC-CIC_22KV_3P
object line_spacing {
	name UGSpacing_2_AL_XLP-CONC-CIC_22KV_3P;
	distance_AB 0.147636;
	distance_BC 0.147636;
	distance_AC 0.295272;
}

// UGSpacing_1100_AL_EPR-CONC-ENCAP-PE_3P
object line_spacing {
	name UGSpacing_1100_AL_EPR-CONC-ENCAP-PE_3P;
	distance_AB 0.147636;
	distance_BC 0.147636;
	distance_AC 0.295272;
}

// UGSpacing_1/0_AL_EPR-CONC-PVC_22KV_3P
object line_spacing {
	name UGSpacing_1/0_AL_EPR-CONC-PVC_22KV_3P;
	distance_AB 0.147636;
	distance_BC 0.147636;
	distance_AC 0.295272;
}

// OHSpacing_HORIZONTAL_2P_52
object line_spacing {
	name OHSpacing_HORIZONTAL_2P_52;
	distance_AB 4.3332773592;
	distance_BC 4.3332773592;
	distance_AC 4.3332773592;
	distance_AN 6.6665888808;
	distance_BN 6.6665888808;
	distance_CN 6.6665888808;
}

// UGSpacing_2_AL_XLP-CONC-ENCAP-PE_22KV_3P
object line_spacing {
	name UGSpacing_2_AL_XLP-CONC-ENCAP-PE_22KV_3P;
	distance_AB 0.147636;
	distance_BC 0.147636;
	distance_AC 0.295272;
}

// UGSpacing_1000_AL_XLP-CONC-PVC_22KV_3P
object line_spacing {
	name UGSpacing_1000_AL_XLP-CONC-PVC_22KV_3P;
	distance_AB 0.147636;
	distance_BC 0.147636;
	distance_AC 0.295272;
}

// UGSpacing_4/0_AL_XLP-CONC-PVC_22KV_3P
object line_spacing {
	name UGSpacing_4/0_AL_XLP-CONC-PVC_22KV_3P;
	distance_AB 0.147636;
	distance_BC 0.147636;
	distance_AC 0.295272;
}

// OHSpacing_TRIANGULAR_2P_50
object line_spacing {
	name OHSpacing_TRIANGULAR_2P_50;
	distance_AB 4.166616;
	distance_BC 4.166616;
	distance_AC 4.166616;
	distance_AN 5.66659776;
	distance_BN 5.66659776;
	distance_CN 5.66659776;
}

// OHSpacing_TRIANGULAR_2P_35
object line_spacing {
	name OHSpacing_TRIANGULAR_2P_35;
	distance_AB 2.9169658416;
	distance_BC 2.9169658416;
	distance_AC 2.9169658416;
	distance_AN 2.9169658416;
	distance_BN 2.9169658416;
	distance_CN 2.9169658416;
}

// OHSpacing_TRIANGULAR_2P_52
object line_spacing {
	name OHSpacing_TRIANGULAR_2P_52;
	distance_AB 4.33328064;
	distance_BC 4.33328064;
	distance_AC 4.33328064;
	distance_AN 4.3332773592;
	distance_BN 4.3332773592;
	distance_CN 4.3332773592;
}

// OHSpacing_TRIANGULAR_2P_39
object line_spacing {
	name OHSpacing_TRIANGULAR_2P_39;
	distance_AB 3.24996048;
	distance_BC 3.24996048;
	distance_AC 3.24996048;
	distance_AN 3.24996048;
	distance_BN 3.24996048;
	distance_CN 3.24996048;
}

// UGSpacing_1/0_AL_EPR-CONC-ENCAP-PE_3P
object line_spacing {
	name UGSpacing_1/0_AL_EPR-CONC-ENCAP-PE_3P;
	distance_AB 0.147636;
	distance_BC 0.147636;
	distance_AC 0.295272;
}

// UGSpacing_1/0_AL_XLP-CONC-PVC_22KV_2P
object line_spacing {
	name UGSpacing_1/0_AL_XLP-CONC-PVC_22KV_2P;
	distance_AB 0.147636;
	distance_BC 0.0;
	distance_AC 0.0;
}

// OHSpacing_HORIZONTAL_2P_56
object line_spacing {
	name OHSpacing_HORIZONTAL_2P_56;
	distance_AB 4.66660992;
	distance_BC 4.66660992;
	distance_AC 4.66660992;
	distance_AN 6.99991488;
	distance_BN 6.99991488;
	distance_CN 6.99991488;
}

// OHSpacing_TRIANGULAR_2P_88
object line_spacing {
	name OHSpacing_TRIANGULAR_2P_88;
	distance_AB 7.3329095184;
	distance_BC 7.3329095184;
	distance_AC 7.3329095184;
	distance_AN 7.3329095184;
	distance_BN 7.3329095184;
	distance_CN 7.3329095184;
}

// UGSpacing_1000_AL_XLP-CONC-PVC_15KV_3P
object line_spacing {
	name UGSpacing_1000_AL_XLP-CONC-PVC_15KV_3P;
	distance_AB 0.147636;
	distance_BC 0.147636;
	distance_AC 0.295272;
}

// OHSpacing_HORIZONTAL_3P_88
object line_spacing {
	name OHSpacing_HORIZONTAL_3P_88;
	distance_AB 7.3332408792;
	distance_BC 7.3332408792;
	distance_AC 7.3332408792;
	distance_AN 9.9998784;
	distance_BN 9.9998784;
	distance_CN 9.9998784;
}

// UGSpacing_2_AL_PEC_22KV_3P
object line_spacing {
	name UGSpacing_2_AL_PEC_22KV_3P;
	distance_AB 0.147636;
	distance_BC 0.147636;
	distance_AC 0.295272;
}

// UGSpacing_DEFAULT
object line_spacing {
	name UGSpacing_DEFAULT;
	distance_AB 0.147636;
	distance_BC 0.147636;
	distance_AC 0.295272;
}

// OHSpacing_TRIANGULAR_3P_35
object line_spacing {
	name OHSpacing_TRIANGULAR_3P_35;
	distance_AB 2.9166312;
	distance_BC 2.9166312;
	distance_AC 2.9166312;
	distance_AN 5.49993312;
	distance_BN 5.49993312;
	distance_CN 5.49993312;
}

// UGSpacing_2_AL_XLP-CONC-ENCAP-PE_22KV_2P
object line_spacing {
	name UGSpacing_2_AL_XLP-CONC-ENCAP-PE_22KV_2P;
	distance_AB 0.147636;
	distance_BC 0.0;
	distance_AC 0.0;
}

// UGSpacing_1/0_AL_XLP-CON-ENCP-PE_22KV_2P
object line_spacing {
	name UGSpacing_1/0_AL_XLP-CON-ENCP-PE_22KV_2P;
	distance_AB 0.147636;
	distance_BC 0.0;
	distance_AC 0.0;
}

// UGSpacing_2_AL_XLP-PVC_15KV_3P
object line_spacing {
	name UGSpacing_2_AL_XLP-PVC_15KV_3P;
	distance_AB 0.147636;
	distance_BC 0.147636;
	distance_AC 0.295272;
}

// OHSpacing_TRIANGULAR_3P_45
object line_spacing {
	name OHSpacing_TRIANGULAR_3P_45;
	distance_AB 3.7499544;
	distance_BC 3.7499544;
	distance_AC 3.7499544;
	distance_AN 4.9999392;
	distance_BN 4.9999392;
	distance_CN 4.9999392;
}

// UGSpacing_2_AL_XLP-CONC-CIC_22KV_2P
object line_spacing {
	name UGSpacing_2_AL_XLP-CONC-CIC_22KV_2P;
	distance_AB 0.147636;
	distance_BC 0.0;
	distance_AC 0.0;
}

// OHSpacing_HORIZONTAL_3P_35
object line_spacing {
	name OHSpacing_HORIZONTAL_3P_35;
	distance_AB 2.9169658416;
	distance_BC 2.9169658416;
	distance_AC 2.9169658416;
	distance_AN 2.9169658416;
	distance_BN 2.9169658416;
	distance_CN 2.9169658416;
}

// OHSpacing_HORIZONTAL_3P_52
object line_spacing {
	name OHSpacing_HORIZONTAL_3P_52;
	distance_AB 4.3332773592;
	distance_BC 4.3332773592;
	distance_AC 4.3332773592;
	distance_AN 6.6665888808;
	distance_BN 6.6665888808;
	distance_CN 6.6665888808;
}

// UGSpacing_1/0_AL_XLP-CONC-PVC_22KV_3P
object line_spacing {
	name UGSpacing_1/0_AL_XLP-CONC-PVC_22KV_3P;
	distance_AB 0.147636;
	distance_BC 0.147636;
	distance_AC 0.295272;
}

// OHSpacing_HORIZONTAL_3P_56
object line_spacing {
	name OHSpacing_HORIZONTAL_3P_56;
	distance_AB 4.66660992;
	distance_BC 4.66660992;
	distance_AC 4.66660992;
	distance_AN 6.99991488;
	distance_BN 6.99991488;
	distance_CN 6.99991488;
}

// OHSpacing_HORIZONTAL_3P_54
object line_spacing {
	name OHSpacing_HORIZONTAL_3P_54;
	distance_AB 4.49994528;
	distance_BC 4.49994528;
	distance_AC 4.49994528;
	distance_AN 6.1199255808;
	distance_BN 6.1199255808;
	distance_CN 6.1199255808;
}

// OHSpacing_HORIZONTAL_2P_35
object line_spacing {
	name OHSpacing_HORIZONTAL_2P_35;
	distance_AB 2.9159651976;
	distance_BC 2.9159651976;
	distance_AC 2.9159651976;
	distance_AN 2.9159651976;
	distance_BN 2.9159651976;
	distance_CN 2.9159651976;
}

// OHSpacing_TRIANGULAR_2P_45
object line_spacing {
	name OHSpacing_TRIANGULAR_2P_45;
	distance_AB 3.7499544;
	distance_BC 3.7499544;
	distance_AC 3.7499544;
	distance_AN 3.7499544;
	distance_BN 3.7499544;
	distance_CN 3.7499544;
}

// UGSpacing_2_AL_XLP-CONC-PVC_22KV_2P
object line_spacing {
	name UGSpacing_2_AL_XLP-CONC-PVC_22KV_2P;
	distance_AB 0.147636;
	distance_BC 0.0;
	distance_AC 0.0;
}

// UGSpacing_2_AL_XLP-CONC-PVC_22KV_3P
object line_spacing {
	name UGSpacing_2_AL_XLP-CONC-PVC_22KV_3P;
	distance_AB 0.147636;
	distance_BC 0.147636;
	distance_AC 0.295272;
}

// UGSpacing_1/0_AL_EPR-CONC-ENCAP-PE_2P
object line_spacing {
	name UGSpacing_1/0_AL_EPR-CONC-ENCAP-PE_2P;
	distance_AB 0.147636;
	distance_BC 0.0;
	distance_AC 0.0;
}

// OHSpacing_HORIZONTAL_2P_45
object line_spacing {
	name OHSpacing_HORIZONTAL_2P_45;
	distance_AB 3.7499544;
	distance_BC 3.7499544;
	distance_AC 3.7499544;
	distance_AN 4.9999392;
	distance_BN 4.9999392;
	distance_CN 4.9999392;
}

// UGSpacing_1/0_AL_XLP-CON-ENCP-PE_22KV_3P
object line_spacing {
	name UGSpacing_1/0_AL_XLP-CON-ENCP-PE_22KV_3P;
	distance_AB 0.147636;
	distance_BC 0.147636;
	distance_AC 0.295272;
}

// UGSpacing_2_AL_PEC_22KV_2P
object line_spacing {
	name UGSpacing_2_AL_PEC_22KV_2P;
	distance_AB 0.147636;
	distance_BC 0.0;
	distance_AC 0.0;
}

// UGSpacing_2_AL_XLP-PVC_22KV_3P
object line_spacing {
	name UGSpacing_2_AL_XLP-PVC_22KV_3P;
	distance_AB 0.147636;
	distance_BC 0.147636;
	distance_AC 0.295272;
}

// UGSpacing_700_AL_XLP-CONC-PVC_22KV_3P
object line_spacing {
	name UGSpacing_700_AL_XLP-CONC-PVC_22KV_3P;
	distance_AB 0.147636;
	distance_BC 0.147636;
	distance_AC 0.295272;
}

// OHSpacing_VERTICAL_3P_30
object line_spacing {
	name OHSpacing_VERTICAL_3P_30;
	distance_AB 2.4999696;
	distance_BC 2.4999696;
	distance_AC 2.4999696;
	distance_AN 2.4999696;
	distance_BN 2.4999696;
	distance_CN 2.4999696;
}

//*********************************************
// Line Config objects
//*********************************************
// L_1800053373_LineConfig
object line_configuration {
	name L_1800053373_LineConfig;
	conductor_A OHCond_6_CU_C;
	conductor_B OHCond_6_CU_C;
	spacing OHSpacing_HORIZONTAL_2P_88;
}

// L_1800004011_LineConfig
object line_configuration {
	name L_1800004011_LineConfig;
	conductor_A OHCond_6_CU_C;
	conductor_B OHCond_6_CU_C;
	conductor_C OHCond_6_CU_C;
	spacing OHSpacing_HORIZONTAL_3P_52;
}

// L_1800035681_LineConfig
object line_configuration {
	name L_1800035681_LineConfig;
	conductor_A OHCond_6_CU_C;
	conductor_B OHCond_6_CU_C;
	spacing OHSpacing_HORIZONTAL_2P_88;
}

// L_1800092088_LineConfig
object line_configuration {
	name L_1800092088_LineConfig;
	conductor_A OHCond_715_AAC_C;
	conductor_B OHCond_715_AAC_C;
	conductor_C OHCond_715_AAC_C;
	spacing OHSpacing_HORIZONTAL_3P_52;
}

// L_1800053384_LineConfig
object line_configuration {
	name L_1800053384_LineConfig;
	conductor_A OHCond_6_CU_C;
	conductor_B OHCond_6_CU_C;
	spacing OHSpacing_HORIZONTAL_2P_88;
}

// L_1800036037_LineConfig
object line_configuration {
	name L_1800036037_LineConfig;
	conductor_A OHCond_6_CU_C;
	conductor_B OHCond_6_CU_C;
	spacing OHSpacing_HORIZONTAL_2P_88;
}

// L_1800015880_LineConfig
object line_configuration {
	name L_1800015880_LineConfig;
	conductor_A OHCond_6_CU_C;
	conductor_B OHCond_6_CU_C;
	conductor_C OHCond_6_CU_C;
	spacing OHSpacing_HORIZONTAL_3P_52;
}

// L_1800029057_LineConfig
object line_configuration {
	name L_1800029057_LineConfig;
	conductor_A OHCond_6_CU_C;
	conductor_B OHCond_6_CU_C;
	conductor_C OHCond_6_CU_C;
	spacing OHSpacing_HORIZONTAL_3P_52;
}

// L_1800052775_LineConfig
object line_configuration {
	name L_1800052775_LineConfig;
	conductor_A OHCond_6_CU_C;
	conductor_B OHCond_6_CU_C;
	spacing OHSpacing_HORIZONTAL_2P_56;
}

// L_1800053029_LineConfig
object line_configuration {
	name L_1800053029_LineConfig;
	conductor_A OHCond_715_AAC_C;
	conductor_B OHCond_715_AAC_C;
	conductor_C OHCond_715_AAC_C;
	spacing OHSpacing_HORIZONTAL_3P_35;
}

// L_1800053067_LineConfig
object line_configuration {
	name L_1800053067_LineConfig;
	conductor_A OHCond_6_CU_C;
	conductor_B OHCond_6_CU_C;
	conductor_C OHCond_6_CU_C;
	spacing OHSpacing_HORIZONTAL_3P_52;
}

// L_1800038501_LineConfig
object line_configuration {
	name L_1800038501_LineConfig;
	conductor_A OHCond_6_CU_C;
	conductor_B OHCond_6_CU_C;
	spacing OHSpacing_HORIZONTAL_2P_88;
}

// L_1800053395_LineConfig
object line_configuration {
	name L_1800053395_LineConfig;
	conductor_A OHCond_6_CU_C;
	conductor_B OHCond_6_CU_C;
	spacing OHSpacing_HORIZONTAL_2P_52;
}

// L_1800053034_LineConfig
object line_configuration {
	name L_1800053034_LineConfig;
	conductor_A OHCond_6_CU_C;
	conductor_B OHCond_6_CU_C;
	spacing OHSpacing_HORIZONTAL_2P_35;
}

// L_1800038544_LineConfig
object line_configuration {
	name L_1800038544_LineConfig;
	conductor_A OHCond_6_CU_C;
	conductor_B OHCond_6_CU_C;
	spacing OHSpacing_HORIZONTAL_2P_88;
}

// L_1800052983_LineConfig
object line_configuration {
	name L_1800052983_LineConfig;
	conductor_A OHCond_6_CU_C;
	conductor_B OHCond_6_CU_C;
	conductor_C OHCond_6_CU_C;
	spacing OHSpacing_HORIZONTAL_3P_52;
}

// L_1800006111_LineConfig
object line_configuration {
	name L_1800006111_LineConfig;
	conductor_A OHCond_6_CU_C;
	conductor_B OHCond_6_CU_C;
	conductor_C OHCond_6_CU_C;
	spacing OHSpacing_HORIZONTAL_3P_52;
}

// L_1800078443_LineConfig
object line_configuration {
	name L_1800078443_LineConfig;
	conductor_A OHCond_4_ACSR_C;
	conductor_B OHCond_4_ACSR_C;
	conductor_C OHCond_4_ACSR_C;
	spacing OHSpacing_HORIZONTAL_3P_52;
}

// L_1800024916_LineConfig
object line_configuration {
	name L_1800024916_LineConfig;
	conductor_A OHCond_6_CU_C;
	conductor_B OHCond_6_CU_C;
	conductor_C OHCond_6_CU_C;
	spacing OHSpacing_HORIZONTAL_3P_52;
}

// L_1800040544_LineConfig
object line_configuration {
	name L_1800040544_LineConfig;
	conductor_A OHCond_6_CU_C;
	conductor_B OHCond_6_CU_C;
	conductor_C OHCond_6_CU_C;
	spacing OHSpacing_HORIZONTAL_3P_52;
}

// L_1800053090_LineConfig
object line_configuration {
	name L_1800053090_LineConfig;
	conductor_A OHCond_6_CU_C;
	conductor_B OHCond_6_CU_C;
	conductor_C OHCond_6_CU_C;
	spacing OHSpacing_HORIZONTAL_3P_52;
}

// L_1800041368_LineConfig
object line_configuration {
	name L_1800041368_LineConfig;
	conductor_A OHCond_397_AAC_C;
	conductor_B OHCond_397_AAC_C;
	conductor_C OHCond_397_AAC_C;
	spacing OHSpacing_HORIZONTAL_3P_52;
}

// L_1800040455_LineConfig
object line_configuration {
	name L_1800040455_LineConfig;
	conductor_A OHCond_6_CU_C;
	conductor_B OHCond_6_CU_C;
	conductor_C OHCond_6_CU_C;
	spacing OHSpacing_HORIZONTAL_3P_52;
}

// L_1800002515_LineConfig
object line_configuration {
	name L_1800002515_LineConfig;
	conductor_A OHCond_6_CU_C;
	conductor_B OHCond_6_CU_C;
	conductor_C OHCond_6_CU_C;
	spacing OHSpacing_HORIZONTAL_3P_52;
}

// L_1800043608_LineConfig
object line_configuration {
	name L_1800043608_LineConfig;
	conductor_A OHCond_6_CU_C;
	conductor_B OHCond_6_CU_C;
	spacing OHSpacing_HORIZONTAL_2P_88;
}

// L_1800053333_LineConfig
object line_configuration {
	name L_1800053333_LineConfig;
	conductor_A OHCond_6_CU_C;
	conductor_B OHCond_6_CU_C;
	spacing OHSpacing_HORIZONTAL_2P_52;
}

// L_1800005769_LineConfig
object line_configuration {
	name L_1800005769_LineConfig;
	conductor_A OHCond_6_CU_C;
	conductor_B OHCond_6_CU_C;
	spacing OHSpacing_HORIZONTAL_2P_88;
}

// L_1800053371_LineConfig
object line_configuration {
	name L_1800053371_LineConfig;
	conductor_A OHCond_6_CU_C;
	conductor_B OHCond_6_CU_C;
	spacing OHSpacing_HORIZONTAL_2P_88;
}

// L_1800052753_LineConfig
object line_configuration {
	name L_1800052753_LineConfig;
	conductor_A OHCond_6_CU_C;
	conductor_B OHCond_6_CU_C;
	spacing OHSpacing_HORIZONTAL_2P_52;
}

// L_1800052754_LineConfig
object line_configuration {
	name L_1800052754_LineConfig;
	conductor_A OHCond_6_CU_C;
	conductor_B OHCond_6_CU_C;
	conductor_C OHCond_6_CU_C;
	spacing OHSpacing_HORIZONTAL_3P_52;
}

// L_1800039893_LineConfig
object line_configuration {
	name L_1800039893_LineConfig;
	conductor_A OHCond_715_AAC_C;
	conductor_B OHCond_715_AAC_C;
	conductor_C OHCond_715_AAC_C;
	spacing OHSpacing_HORIZONTAL_3P_52;
}

// L_1800052954_LineConfig
object line_configuration {
	name L_1800052954_LineConfig;
	conductor_A OHCond_6_CU_C;
	conductor_B OHCond_6_CU_C;
	conductor_C OHCond_6_CU_C;
	spacing OHSpacing_HORIZONTAL_3P_52;
}

// L_1800031448_LineConfig
object line_configuration {
	name L_1800031448_LineConfig;
	conductor_A OHCond_6_CU_C;
	conductor_B OHCond_6_CU_C;
	conductor_C OHCond_6_CU_C;
	spacing OHSpacing_HORIZONTAL_3P_52;
}

// L_1800078773_LineConfig
object line_configuration {
	name L_1800078773_LineConfig;
	conductor_A OHCond_4/0_AAC_C;
	conductor_B OHCond_4/0_AAC_C;
	conductor_C OHCond_4/0_AAC_C;
	spacing OHSpacing_HORIZONTAL_3P_52;
}

// L_1800053412_LineConfig
object line_configuration {
	name L_1800053412_LineConfig;
	conductor_A OHCond_6_CU_C;
	conductor_B OHCond_6_CU_C;
	spacing OHSpacing_HORIZONTAL_2P_52;
}

// L_1800052762_LineConfig
object line_configuration {
	name L_1800052762_LineConfig;
	conductor_A OHCond_4_ACSR_C;
	conductor_B OHCond_4_ACSR_C;
	conductor_C OHCond_4_ACSR_C;
	spacing OHSpacing_HORIZONTAL_3P_52;
}

// L_1800007147_LineConfig
object line_configuration {
	name L_1800007147_LineConfig;
	conductor_A OHCond_715_AAC_C;
	conductor_B OHCond_715_AAC_C;
	conductor_C OHCond_715_AAC_C;
	spacing OHSpacing_TRIANGULAR_3P_35;
}

// L_1800085348_LineConfig
object line_configuration {
	name L_1800085348_LineConfig;
	conductor_A OHCond_715_AAC_C;
	conductor_B OHCond_715_AAC_C;
	conductor_C OHCond_715_AAC_C;
	spacing OHSpacing_HORIZONTAL_3P_52;
}

// L_1800005779_LineConfig
object line_configuration {
	name L_1800005779_LineConfig;
	conductor_A OHCond_6_CU_C;
	conductor_B OHCond_6_CU_C;
	conductor_C OHCond_6_CU_C;
	spacing OHSpacing_HORIZONTAL_3P_52;
}

// L_1800085512_LineConfig
object line_configuration {
	name L_1800085512_LineConfig;
	conductor_A OHCond_4_ACSR_C;
	conductor_B OHCond_4_ACSR_C;
	conductor_C OHCond_4_ACSR_C;
	spacing OHSpacing_HORIZONTAL_3P_52;
}

// L_1800053342_LineConfig
object line_configuration {
	name L_1800053342_LineConfig;
	conductor_A OHCond_4_ACSR_C;
	conductor_B OHCond_4_ACSR_C;
	spacing OHSpacing_HORIZONTAL_2P_52;
}

// L_1800015883_LineConfig
object line_configuration {
	name L_1800015883_LineConfig;
	conductor_A OHCond_6_CU_C;
	conductor_B OHCond_6_CU_C;
	conductor_C OHCond_6_CU_C;
	spacing OHSpacing_HORIZONTAL_3P_52;
}

// L_1800076214_LineConfig
object line_configuration {
	name L_1800076214_LineConfig;
	conductor_A OHCond_4/0_AAC_C;
	conductor_B OHCond_4/0_AAC_C;
	conductor_C OHCond_4/0_AAC_C;
	spacing OHSpacing_HORIZONTAL_3P_52;
}

// L_1800010996_LineConfig
object line_configuration {
	name L_1800010996_LineConfig;
	conductor_A OHCond_6_CU_C;
	conductor_B OHCond_6_CU_C;
	spacing OHSpacing_HORIZONTAL_2P_52;
}

// L_1800053381_LineConfig
object line_configuration {
	name L_1800053381_LineConfig;
	conductor_A OHCond_6_CU_C;
	conductor_B OHCond_6_CU_C;
	spacing OHSpacing_HORIZONTAL_2P_88;
}

// L_1800078445_LineConfig
object line_configuration {
	name L_1800078445_LineConfig;
	conductor_A OHCond_4_ACSR_C;
	conductor_B OHCond_4_ACSR_C;
	conductor_C OHCond_4_ACSR_C;
	spacing OHSpacing_HORIZONTAL_3P_52;
}

// L_1800053088_LineConfig
object line_configuration {
	name L_1800053088_LineConfig;
	conductor_A OHCond_6_CU_C;
	conductor_B OHCond_6_CU_C;
	conductor_C OHCond_6_CU_C;
	spacing OHSpacing_HORIZONTAL_3P_52;
}

// L_1800053482_LineConfig
object line_configuration {
	name L_1800053482_LineConfig;
	conductor_A OHCond_6_CU_C;
	conductor_B OHCond_6_CU_C;
	conductor_C OHCond_6_CU_C;
	spacing OHSpacing_HORIZONTAL_3P_52;
}

// L_1800034877_LineConfig
object line_configuration {
	name L_1800034877_LineConfig;
	conductor_A OHCond_6_CU_C;
	conductor_B OHCond_6_CU_C;
	spacing OHSpacing_HORIZONTAL_2P_88;
}

// L_1800017857_LineConfig
object line_configuration {
	name L_1800017857_LineConfig;
	conductor_A OHCond_397_AAC_C;
	conductor_B OHCond_397_AAC_C;
	conductor_C OHCond_397_AAC_C;
	spacing OHSpacing_HORIZONTAL_3P_52;
}

// L_1800053374_LineConfig
object line_configuration {
	name L_1800053374_LineConfig;
	conductor_A OHCond_6_CU_C;
	conductor_B OHCond_6_CU_C;
	spacing OHSpacing_HORIZONTAL_2P_88;
}

// L_1800053429_LineConfig
object line_configuration {
	name L_1800053429_LineConfig;
	conductor_A OHCond_2_CU_C;
	conductor_B OHCond_2_CU_C;
	conductor_C OHCond_2_CU_C;
	spacing OHSpacing_HORIZONTAL_3P_52;
}

// L_1800029075_LineConfig
object line_configuration {
	name L_1800029075_LineConfig;
	conductor_A OHCond_2_CU_C;
	conductor_B OHCond_2_CU_C;
	conductor_C OHCond_2_CU_C;
	spacing OHSpacing_HORIZONTAL_3P_52;
}

// L_1800053064_LineConfig
object line_configuration {
	name L_1800053064_LineConfig;
	conductor_A OHCond_6_CU_C;
	conductor_B OHCond_6_CU_C;
	conductor_C OHCond_6_CU_C;
	spacing OHSpacing_HORIZONTAL_3P_52;
}

// L_1800038782_LineConfig
object line_configuration {
	name L_1800038782_LineConfig;
	conductor_A OHCond_6_CU_C;
	conductor_B OHCond_6_CU_C;
	spacing OHSpacing_HORIZONTAL_2P_88;
}

// L_1800005744_LineConfig
object line_configuration {
	name L_1800005744_LineConfig;
	conductor_A OHCond_2_CU_C;
	conductor_B OHCond_2_CU_C;
	conductor_C OHCond_2_CU_C;
	spacing OHSpacing_HORIZONTAL_3P_52;
}

// L_1800006380_LineConfig
object line_configuration {
	name L_1800006380_LineConfig;
	conductor_A OHCond_6_CU_C;
	conductor_B OHCond_6_CU_C;
	conductor_C OHCond_6_CU_C;
	spacing OHSpacing_HORIZONTAL_3P_52;
}

// L_1800015882_LineConfig
object line_configuration {
	name L_1800015882_LineConfig;
	conductor_A OHCond_715_AAC_C;
	conductor_B OHCond_715_AAC_C;
	conductor_C OHCond_715_AAC_C;
	spacing OHSpacing_HORIZONTAL_3P_35;
}

// L_1800042676_LineConfig
object line_configuration {
	name L_1800042676_LineConfig;
	conductor_A OHCond_6_CU_C;
	conductor_B OHCond_6_CU_C;
	spacing OHSpacing_TRIANGULAR_2P_88;
}

// L_1800018149_LineConfig
object line_configuration {
	name L_1800018149_LineConfig;
	conductor_A OHCond_715_AAC_C;
	conductor_B OHCond_715_AAC_C;
	conductor_C OHCond_715_AAC_C;
	spacing OHSpacing_HORIZONTAL_3P_52;
}

// L_1800027177_LineConfig
object line_configuration {
	name L_1800027177_LineConfig;
	conductor_A OHCond_715_AAC_C;
	conductor_B OHCond_715_AAC_C;
	conductor_C OHCond_715_AAC_C;
	spacing OHSpacing_HORIZONTAL_3P_52;
}

// L_1800078439_LineConfig
object line_configuration {
	name L_1800078439_LineConfig;
	conductor_A OHCond_6_CU_C;
	conductor_B OHCond_6_CU_C;
	conductor_C OHCond_6_CU_C;
	spacing OHSpacing_HORIZONTAL_3P_52;
}

// L_1800031454_LineConfig
object line_configuration {
	name L_1800031454_LineConfig;
	conductor_A OHCond_6_CU_C;
	conductor_B OHCond_6_CU_C;
	spacing OHSpacing_HORIZONTAL_2P_88;
}

// L_1800071675_LineConfig
object line_configuration {
	name L_1800071675_LineConfig;
	conductor_A OHCond_6_CU_C;
	conductor_B OHCond_6_CU_C;
	spacing OHSpacing_HORIZONTAL_2P_88;
}

// L_1800006042_LineConfig
object line_configuration {
	name L_1800006042_LineConfig;
	conductor_A OHCond_715_AAC_C;
	conductor_B OHCond_715_AAC_C;
	conductor_C OHCond_715_AAC_C;
	spacing OHSpacing_HORIZONTAL_3P_52;
}

// L_1800002637_LineConfig
object line_configuration {
	name L_1800002637_LineConfig;
	conductor_A OHCond_715_AAC_C;
	conductor_B OHCond_715_AAC_C;
	conductor_C OHCond_715_AAC_C;
	spacing OHSpacing_HORIZONTAL_3P_52;
}

// L_1800035687_LineConfig
object line_configuration {
	name L_1800035687_LineConfig;
	conductor_A OHCond_6_CU_C;
	conductor_B OHCond_6_CU_C;
	conductor_C OHCond_6_CU_C;
	spacing OHSpacing_HORIZONTAL_3P_52;
}

// L_1800002514_LineConfig
object line_configuration {
	name L_1800002514_LineConfig;
	conductor_A OHCond_4_ACSR_C;
	conductor_B OHCond_4_ACSR_C;
	conductor_C OHCond_4_ACSR_C;
	spacing OHSpacing_HORIZONTAL_3P_52;
}

// L_1800053411_LineConfig
object line_configuration {
	name L_1800053411_LineConfig;
	conductor_A OHCond_6_CU_C;
	conductor_B OHCond_6_CU_C;
	conductor_C OHCond_6_CU_C;
	spacing OHSpacing_HORIZONTAL_3P_52;
}

// L_1800016714_LineConfig
object line_configuration {
	name L_1800016714_LineConfig;
	conductor_A OHCond_2_CU_C;
	conductor_B OHCond_2_CU_C;
	conductor_C OHCond_2_CU_C;
	spacing OHSpacing_HORIZONTAL_3P_52;
}

// L_1800038502_LineConfig
object line_configuration {
	name L_1800038502_LineConfig;
	conductor_A OHCond_6_CU_C;
	conductor_B OHCond_6_CU_C;
	spacing OHSpacing_HORIZONTAL_2P_88;
}

// L_1800052702_LineConfig
object line_configuration {
	name L_1800052702_LineConfig;
	conductor_A OHCond_6_CU_C;
	conductor_B OHCond_6_CU_C;
	spacing OHSpacing_HORIZONTAL_2P_52;
}

// L_1800031449_LineConfig
object line_configuration {
	name L_1800031449_LineConfig;
	conductor_A OHCond_6_CU_C;
	conductor_B OHCond_6_CU_C;
	conductor_C OHCond_6_CU_C;
	spacing OHSpacing_HORIZONTAL_3P_52;
}

// L_1800053440_LineConfig
object line_configuration {
	name L_1800053440_LineConfig;
	conductor_A OHCond_6_CU_C;
	conductor_B OHCond_6_CU_C;
	spacing OHSpacing_HORIZONTAL_2P_52;
}

// L_1800053447_LineConfig
object line_configuration {
	name L_1800053447_LineConfig;
	conductor_A OHCond_6_CU_C;
	conductor_B OHCond_6_CU_C;
	conductor_C OHCond_6_CU_C;
	spacing OHSpacing_HORIZONTAL_3P_52;
}

// L_1800031919_LineConfig
object line_configuration {
	name L_1800031919_LineConfig;
	conductor_A OHCond_6_CU_C;
	conductor_B OHCond_6_CU_C;
	spacing OHSpacing_HORIZONTAL_2P_88;
}

// L_1800029066_LineConfig
object line_configuration {
	name L_1800029066_LineConfig;
	conductor_A OHCond_6_CU_C;
	conductor_B OHCond_6_CU_C;
	conductor_C OHCond_6_CU_C;
	spacing OHSpacing_HORIZONTAL_3P_52;
}

// L_1800006110_LineConfig
object line_configuration {
	name L_1800006110_LineConfig;
	conductor_A OHCond_6_CU_C;
	conductor_B OHCond_6_CU_C;
	conductor_C OHCond_6_CU_C;
	spacing OHSpacing_HORIZONTAL_3P_52;
}

// L_1800034184_LineConfig
object line_configuration {
	name L_1800034184_LineConfig;
	conductor_A OHCond_6_CU_C;
	conductor_B OHCond_6_CU_C;
	conductor_C OHCond_6_CU_C;
	spacing OHSpacing_HORIZONTAL_3P_52;
}

// L_1800053493_LineConfig
object line_configuration {
	name L_1800053493_LineConfig;
	conductor_A OHCond_6_CU_C;
	conductor_B OHCond_6_CU_C;
	conductor_C OHCond_6_CU_C;
	spacing OHSpacing_HORIZONTAL_3P_52;
}

// L_1800034870_LineConfig
object line_configuration {
	name L_1800034870_LineConfig;
	conductor_A OHCond_6_CU_C;
	conductor_B OHCond_6_CU_C;
	conductor_C OHCond_6_CU_C;
	spacing OHSpacing_HORIZONTAL_3P_52;
}

// L_1800041489_LineConfig
object line_configuration {
	name L_1800041489_LineConfig;
	conductor_A OHCond_6_CU_C;
	conductor_B OHCond_6_CU_C;
	spacing OHSpacing_HORIZONTAL_2P_88;
}

// L_1800005775_LineConfig
object line_configuration {
	name L_1800005775_LineConfig;
	conductor_A OHCond_4_ACSR_C;
	conductor_B OHCond_4_ACSR_C;
	conductor_C OHCond_4_ACSR_C;
	spacing OHSpacing_HORIZONTAL_3P_52;
}

// L_1800038549_LineConfig
object line_configuration {
	name L_1800038549_LineConfig;
	conductor_A OHCond_6_CU_C;
	conductor_B OHCond_6_CU_C;
	spacing OHSpacing_HORIZONTAL_2P_88;
}

// L_1800041491_LineConfig
object line_configuration {
	name L_1800041491_LineConfig;
	conductor_A OHCond_6_CU_C;
	conductor_B OHCond_6_CU_C;
	spacing OHSpacing_HORIZONTAL_2P_88;
}

// L_1800038506_LineConfig
object line_configuration {
	name L_1800038506_LineConfig;
	conductor_A OHCond_6_CU_C;
	conductor_B OHCond_6_CU_C;
	spacing OHSpacing_HORIZONTAL_2P_88;
}

// L_1800070406_LineConfig
object line_configuration {
	name L_1800070406_LineConfig;
	conductor_A OHCond_6_CU_C;
	conductor_B OHCond_6_CU_C;
	conductor_C OHCond_6_CU_C;
	spacing OHSpacing_HORIZONTAL_3P_52;
}

// L_1800029073_LineConfig
object line_configuration {
	name L_1800029073_LineConfig;
	conductor_A OHCond_2_CU_C;
	conductor_B OHCond_2_CU_C;
	conductor_C OHCond_2_CU_C;
	spacing OHSpacing_HORIZONTAL_3P_52;
}

// L_1800019021_LineConfig
object line_configuration {
	name L_1800019021_LineConfig;
	conductor_A OHCond_4/0_AAC_C;
	conductor_B OHCond_4/0_AAC_C;
	conductor_C OHCond_4/0_AAC_C;
	spacing OHSpacing_HORIZONTAL_3P_52;
}

// L_1800019944_LineConfig
object line_configuration {
	name L_1800019944_LineConfig;
	conductor_A OHCond_4/0_AAC_C;
	conductor_B OHCond_4/0_AAC_C;
	conductor_C OHCond_4/0_AAC_C;
	spacing OHSpacing_TRIANGULAR_3P_35;
}

// L_1800030774_LineConfig
object line_configuration {
	name L_1800030774_LineConfig;
	conductor_A OHCond_715_AAC_C;
	conductor_B OHCond_715_AAC_C;
	conductor_C OHCond_715_AAC_C;
	spacing OHSpacing_HORIZONTAL_3P_52;
}

// L_1800078343_LineConfig
object line_configuration {
	name L_1800078343_LineConfig;
	conductor_A OHCond_6_CU_C;
	conductor_B OHCond_6_CU_C;
	conductor_C OHCond_6_CU_C;
	spacing OHSpacing_HORIZONTAL_3P_52;
}

// L_1800052787_LineConfig
object line_configuration {
	name L_1800052787_LineConfig;
	conductor_A OHCond_6_CU_C;
	conductor_B OHCond_6_CU_C;
	conductor_C OHCond_6_CU_C;
	spacing OHSpacing_HORIZONTAL_3P_52;
}

// L_1800003444_LineConfig
object line_configuration {
	name L_1800003444_LineConfig;
	conductor_A OHCond_6_CU_C;
	conductor_B OHCond_6_CU_C;
	conductor_C OHCond_6_CU_C;
	spacing OHSpacing_HORIZONTAL_3P_52;
}

// L_1800038498_LineConfig
object line_configuration {
	name L_1800038498_LineConfig;
	conductor_A OHCond_6_CU_C;
	conductor_B OHCond_6_CU_C;
	spacing OHSpacing_HORIZONTAL_2P_88;
}

// L_1800053340_LineConfig
object line_configuration {
	name L_1800053340_LineConfig;
	conductor_A OHCond_6_CU_C;
	conductor_B OHCond_6_CU_C;
	spacing OHSpacing_HORIZONTAL_2P_52;
}

// L_1800016269_LineConfig
object line_configuration {
	name L_1800016269_LineConfig;
	conductor_A OHCond_4_ACSR_C;
	conductor_B OHCond_4_ACSR_C;
	conductor_C OHCond_4_ACSR_C;
	spacing OHSpacing_TRIANGULAR_3P_35;
}

// L_1800052709_LineConfig
object line_configuration {
	name L_1800052709_LineConfig;
	conductor_A OHCond_6_CU_C;
	conductor_B OHCond_6_CU_C;
	spacing OHSpacing_HORIZONTAL_2P_52;
}

// L_1800053320_LineConfig
object line_configuration {
	name L_1800053320_LineConfig;
	conductor_A OHCond_6_CU_C;
	conductor_B OHCond_6_CU_C;
	spacing OHSpacing_HORIZONTAL_2P_52;
}

// L_1800053339_LineConfig
object line_configuration {
	name L_1800053339_LineConfig;
	conductor_A OHCond_6_CU_C;
	conductor_B OHCond_6_CU_C;
	spacing OHSpacing_HORIZONTAL_2P_52;
}

// L_1800037800_LineConfig
object line_configuration {
	name L_1800037800_LineConfig;
	conductor_A OHCond_6_CU_C;
	conductor_B OHCond_6_CU_C;
	conductor_C OHCond_6_CU_C;
	spacing OHSpacing_HORIZONTAL_3P_52;
}

// L_1800041490_LineConfig
object line_configuration {
	name L_1800041490_LineConfig;
	conductor_A OHCond_6_CU_C;
	conductor_B OHCond_6_CU_C;
	spacing OHSpacing_HORIZONTAL_2P_88;
}

// L_1800084494_LineConfig
object line_configuration {
	name L_1800084494_LineConfig;
	conductor_A OHCond_6_CU_C;
	conductor_B OHCond_6_CU_C;
	conductor_C OHCond_6_CU_C;
	spacing OHSpacing_HORIZONTAL_3P_88;
}

// L_1800052908_LineConfig
object line_configuration {
	name L_1800052908_LineConfig;
	conductor_A OHCond_6_CU_C;
	conductor_B OHCond_6_CU_C;
	spacing OHSpacing_HORIZONTAL_2P_88;
}

// L_1800053513_LineConfig
object line_configuration {
	name L_1800053513_LineConfig;
	conductor_A OHCond_715_AAC_C;
	conductor_B OHCond_715_AAC_C;
	conductor_C OHCond_715_AAC_C;
	spacing OHSpacing_HORIZONTAL_3P_52;
}

// L_1800003443_LineConfig
object line_configuration {
	name L_1800003443_LineConfig;
	conductor_A OHCond_6_CU_C;
	conductor_B OHCond_6_CU_C;
	conductor_C OHCond_6_CU_C;
	spacing OHSpacing_HORIZONTAL_3P_52;
}

// L_1800070857_LineConfig
object line_configuration {
	name L_1800070857_LineConfig;
	conductor_A OHCond_6_CU_C;
	conductor_B OHCond_6_CU_C;
	spacing OHSpacing_HORIZONTAL_2P_52;
}

// L_1800053055_LineConfig
object line_configuration {
	name L_1800053055_LineConfig;
	conductor_A OHCond_6_CU_C;
	conductor_B OHCond_6_CU_C;
	conductor_C OHCond_6_CU_C;
	spacing OHSpacing_HORIZONTAL_3P_52;
}

// L_1800052818_LineConfig
object line_configuration {
	name L_1800052818_LineConfig;
	conductor_A OHCond_397_AAC_C;
	conductor_B OHCond_397_AAC_C;
	conductor_C OHCond_397_AAC_C;
	spacing OHSpacing_HORIZONTAL_3P_52;
}

// L_1800029060_LineConfig
object line_configuration {
	name L_1800029060_LineConfig;
	conductor_A OHCond_6_CU_C;
	conductor_B OHCond_6_CU_C;
	conductor_C OHCond_6_CU_C;
	spacing OHSpacing_HORIZONTAL_3P_52;
}

// L_1800053086_LineConfig
object line_configuration {
	name L_1800053086_LineConfig;
	conductor_A OHCond_6_CU_C;
	conductor_B OHCond_6_CU_C;
	conductor_C OHCond_6_CU_C;
	spacing OHSpacing_HORIZONTAL_3P_52;
}

// L_1800003441_LineConfig
object line_configuration {
	name L_1800003441_LineConfig;
	conductor_A OHCond_6_CU_C;
	conductor_B OHCond_6_CU_C;
	conductor_C OHCond_6_CU_C;
	spacing OHSpacing_TRIANGULAR_3P_35;
}

// L_1800052756_LineConfig
object line_configuration {
	name L_1800052756_LineConfig;
	conductor_A OHCond_6_CU_C;
	conductor_B OHCond_6_CU_C;
	conductor_C OHCond_6_CU_C;
	spacing OHSpacing_HORIZONTAL_3P_52;
}

// L_1800035686_LineConfig
object line_configuration {
	name L_1800035686_LineConfig;
	conductor_A OHCond_6_CU_C;
	conductor_B OHCond_6_CU_C;
	conductor_C OHCond_6_CU_C;
	spacing OHSpacing_HORIZONTAL_3P_52;
}

// L_1800034193_LineConfig
object line_configuration {
	name L_1800034193_LineConfig;
	conductor_A OHCond_6_CU_C;
	conductor_B OHCond_6_CU_C;
	conductor_C OHCond_6_CU_C;
	spacing OHSpacing_HORIZONTAL_3P_52;
}

// L_1800088788_LineConfig
object line_configuration {
	name L_1800088788_LineConfig;
	conductor_A OHCond_715_AAC_C;
	conductor_B OHCond_715_AAC_C;
	conductor_C OHCond_715_AAC_C;
	spacing OHSpacing_HORIZONTAL_3P_52;
}

// L_1800053492_LineConfig
object line_configuration {
	name L_1800053492_LineConfig;
	conductor_A OHCond_6_CU_C;
	conductor_B OHCond_6_CU_C;
	conductor_C OHCond_6_CU_C;
	spacing OHSpacing_HORIZONTAL_3P_52;
}

// L_1800019807_LineConfig
object line_configuration {
	name L_1800019807_LineConfig;
	conductor_A OHCond_6_CU_C;
	conductor_B OHCond_6_CU_C;
	conductor_C OHCond_6_CU_C;
	spacing OHSpacing_HORIZONTAL_3P_52;
}

// L_1800007144_LineConfig
object line_configuration {
	name L_1800007144_LineConfig;
	conductor_A OHCond_4/0_AAC_C;
	conductor_B OHCond_4/0_AAC_C;
	conductor_C OHCond_4/0_AAC_C;
	spacing OHSpacing_HORIZONTAL_3P_52;
}

// L_1800007143_LineConfig
object line_configuration {
	name L_1800007143_LineConfig;
	conductor_A OHCond_715_AAC_C;
	conductor_B OHCond_715_AAC_C;
	conductor_C OHCond_715_AAC_C;
	spacing OHSpacing_TRIANGULAR_3P_35;
}

// L_1800005780_LineConfig
object line_configuration {
	name L_1800005780_LineConfig;
	conductor_A OHCond_6_CU_C;
	conductor_B OHCond_6_CU_C;
	conductor_C OHCond_6_CU_C;
	spacing OHSpacing_HORIZONTAL_3P_52;
}

// L_1800039059_LineConfig
object line_configuration {
	name L_1800039059_LineConfig;
	conductor_A OHCond_6_CU_C;
	conductor_B OHCond_6_CU_C;
	conductor_C OHCond_6_CU_C;
	spacing OHSpacing_HORIZONTAL_3P_56;
}

// L_1800029074_LineConfig
object line_configuration {
	name L_1800029074_LineConfig;
	conductor_A OHCond_2_CU_C;
	conductor_B OHCond_2_CU_C;
	conductor_C OHCond_2_CU_C;
	spacing OHSpacing_HORIZONTAL_3P_52;
}

// L_1800035683_LineConfig
object line_configuration {
	name L_1800035683_LineConfig;
	conductor_A OHCond_6_CU_C;
	conductor_B OHCond_6_CU_C;
	conductor_C OHCond_6_CU_C;
	spacing OHSpacing_HORIZONTAL_3P_52;
}

// L_1800052979_LineConfig
object line_configuration {
	name L_1800052979_LineConfig;
	conductor_A OHCond_6_CU_C;
	conductor_B OHCond_6_CU_C;
	spacing OHSpacing_HORIZONTAL_2P_88;
}

// L_1800038503_LineConfig
object line_configuration {
	name L_1800038503_LineConfig;
	conductor_A OHCond_6_CU_C;
	conductor_B OHCond_6_CU_C;
	spacing OHSpacing_HORIZONTAL_2P_88;
}

// L_1800036036_LineConfig
object line_configuration {
	name L_1800036036_LineConfig;
	conductor_A OHCond_6_CU_C;
	conductor_B OHCond_6_CU_C;
	spacing OHSpacing_HORIZONTAL_2P_88;
}

// L_1800053066_LineConfig
object line_configuration {
	name L_1800053066_LineConfig;
	conductor_A OHCond_6_CU_C;
	conductor_B OHCond_6_CU_C;
	conductor_C OHCond_6_CU_C;
	spacing OHSpacing_HORIZONTAL_3P_52;
}

// L_1800052763_LineConfig
object line_configuration {
	name L_1800052763_LineConfig;
	conductor_A OHCond_4_ACSR_C;
	conductor_B OHCond_4_ACSR_C;
	conductor_C OHCond_4_ACSR_C;
	spacing OHSpacing_HORIZONTAL_3P_52;
}

// L_1800083652_LineConfig
object line_configuration {
	name L_1800083652_LineConfig;
	conductor_A OHCond_6_CU_C;
	conductor_B OHCond_6_CU_C;
	conductor_C OHCond_6_CU_C;
	spacing OHSpacing_HORIZONTAL_3P_52;
}

// L_1800052770_LineConfig
object line_configuration {
	name L_1800052770_LineConfig;
	conductor_A OHCond_6_CU_C;
	conductor_B OHCond_6_CU_C;
	conductor_C OHCond_6_CU_C;
	spacing OHSpacing_HORIZONTAL_3P_52;
}

// L_1800053396_LineConfig
object line_configuration {
	name L_1800053396_LineConfig;
	conductor_A OHCond_6_CU_C;
	conductor_B OHCond_6_CU_C;
	spacing OHSpacing_TRIANGULAR_2P_50;
}

// L_1800053368_LineConfig
object line_configuration {
	name L_1800053368_LineConfig;
	conductor_A OHCond_6_CU_C;
	conductor_B OHCond_6_CU_C;
	spacing OHSpacing_HORIZONTAL_2P_88;
}

// L_1800053437_LineConfig
object line_configuration {
	name L_1800053437_LineConfig;
	conductor_A OHCond_6_CU_C;
	conductor_B OHCond_6_CU_C;
	spacing OHSpacing_HORIZONTAL_2P_52;
}

// L_1800015884_LineConfig
object line_configuration {
	name L_1800015884_LineConfig;
	conductor_A OHCond_6_CU_C;
	conductor_B OHCond_6_CU_C;
	conductor_C OHCond_6_CU_C;
	spacing OHSpacing_HORIZONTAL_3P_52;
}

// L_1800053321_LineConfig
object line_configuration {
	name L_1800053321_LineConfig;
	conductor_A OHCond_6_CU_C;
	conductor_B OHCond_6_CU_C;
	spacing OHSpacing_HORIZONTAL_2P_52;
}

// L_1800088442_LineConfig
object line_configuration {
	name L_1800088442_LineConfig;
	conductor_A OHCond_4_ACSR_C;
	conductor_B OHCond_4_ACSR_C;
	conductor_C OHCond_4_ACSR_C;
	spacing OHSpacing_HORIZONTAL_3P_52;
}

// L_1800052888_LineConfig
object line_configuration {
	name L_1800052888_LineConfig;
	conductor_A OHCond_6_CU_C;
	conductor_B OHCond_6_CU_C;
	conductor_C OHCond_6_CU_C;
	spacing OHSpacing_HORIZONTAL_3P_52;
}

// L_1800053387_LineConfig
object line_configuration {
	name L_1800053387_LineConfig;
	conductor_A OHCond_4_ACSR_C;
	conductor_B OHCond_4_ACSR_C;
	spacing OHSpacing_HORIZONTAL_2P_88;
}

// L_1800035685_LineConfig
object line_configuration {
	name L_1800035685_LineConfig;
	conductor_A OHCond_6_CU_C;
	conductor_B OHCond_6_CU_C;
	conductor_C OHCond_6_CU_C;
	spacing OHSpacing_HORIZONTAL_3P_52;
}

// L_1800005740_LineConfig
object line_configuration {
	name L_1800005740_LineConfig;
	conductor_A OHCond_2_CU_C;
	conductor_B OHCond_2_CU_C;
	conductor_C OHCond_2_CU_C;
	spacing OHSpacing_HORIZONTAL_3P_52;
}

// L_1800003219_LineConfig
object line_configuration {
	name L_1800003219_LineConfig;
	conductor_A OHCond_397_AAC_C;
	conductor_B OHCond_397_AAC_C;
	conductor_C OHCond_397_AAC_C;
	spacing OHSpacing_HORIZONTAL_3P_52;
}

// L_1800016713_LineConfig
object line_configuration {
	name L_1800016713_LineConfig;
	conductor_A OHCond_6_CU_C;
	conductor_B OHCond_6_CU_C;
	conductor_C OHCond_6_CU_C;
	spacing OHSpacing_HORIZONTAL_3P_52;
}

// L_1800052712_LineConfig
object line_configuration {
	name L_1800052712_LineConfig;
	conductor_A OHCond_6_CU_C;
	conductor_B OHCond_6_CU_C;
	spacing OHSpacing_HORIZONTAL_2P_52;
}

// L_1800005778_LineConfig
object line_configuration {
	name L_1800005778_LineConfig;
	conductor_A OHCond_6_CU_C;
	conductor_B OHCond_6_CU_C;
	conductor_C OHCond_6_CU_C;
	spacing OHSpacing_HORIZONTAL_3P_52;
}

// L_1800053013_LineConfig
object line_configuration {
	name L_1800053013_LineConfig;
	conductor_A OHCond_6_CU_C;
	conductor_B OHCond_6_CU_C;
	conductor_C OHCond_6_CU_C;
	spacing OHSpacing_HORIZONTAL_3P_52;
}

// L_1800053326_LineConfig
object line_configuration {
	name L_1800053326_LineConfig;
	conductor_A OHCond_6_CU_C;
	conductor_B OHCond_6_CU_C;
	conductor_C OHCond_6_CU_C;
	spacing OHSpacing_HORIZONTAL_3P_52;
}

// L_1800052829_LineConfig
object line_configuration {
	name L_1800052829_LineConfig;
	conductor_A OHCond_6_CU_C;
	conductor_B OHCond_6_CU_C;
	spacing OHSpacing_HORIZONTAL_2P_88;
}

// L_1800018232_LineConfig
object line_configuration {
	name L_1800018232_LineConfig;
	conductor_A OHCond_2_CU_C;
	conductor_B OHCond_2_CU_C;
	conductor_C OHCond_2_CU_C;
	spacing OHSpacing_HORIZONTAL_3P_52;
}

// L_1800002805_LineConfig
object line_configuration {
	name L_1800002805_LineConfig;
	conductor_A OHCond_715_AAC_C;
	conductor_B OHCond_715_AAC_C;
	conductor_C OHCond_715_AAC_C;
	spacing OHSpacing_TRIANGULAR_3P_35;
}

// L_1800038495_LineConfig
object line_configuration {
	name L_1800038495_LineConfig;
	conductor_A OHCond_6_CU_C;
	conductor_B OHCond_6_CU_C;
	spacing OHSpacing_HORIZONTAL_2P_88;
}

// L_1800052700_LineConfig
object line_configuration {
	name L_1800052700_LineConfig;
	conductor_A OHCond_6_CU_C;
	conductor_B OHCond_6_CU_C;
	conductor_C OHCond_6_CU_C;
	spacing OHSpacing_HORIZONTAL_3P_52;
}

// L_1800038317_LineConfig
object line_configuration {
	name L_1800038317_LineConfig;
	conductor_A OHCond_715_AAC_C;
	conductor_B OHCond_715_AAC_C;
	conductor_C OHCond_715_AAC_C;
	spacing OHSpacing_HORIZONTAL_3P_52;
}

// L_1800036464_LineConfig
object line_configuration {
	name L_1800036464_LineConfig;
	conductor_A OHCond_6_CU_C;
	conductor_B OHCond_6_CU_C;
	spacing OHSpacing_HORIZONTAL_2P_88;
}

// L_1800053069_LineConfig
object line_configuration {
	name L_1800053069_LineConfig;
	conductor_A OHCond_6_CU_C;
	conductor_B OHCond_6_CU_C;
	spacing OHSpacing_HORIZONTAL_2P_52;
}

// L_1800006105_LineConfig
object line_configuration {
	name L_1800006105_LineConfig;
	conductor_A OHCond_715_AAC_C;
	conductor_B OHCond_715_AAC_C;
	conductor_C OHCond_715_AAC_C;
	spacing OHSpacing_HORIZONTAL_3P_35;
}

// L_1800029642_LineConfig
object line_configuration {
	name L_1800029642_LineConfig;
	conductor_A OHCond_4/0_ACSR_C;
	conductor_B OHCond_4/0_ACSR_C;
	conductor_C OHCond_4/0_ACSR_C;
	spacing OHSpacing_HORIZONTAL_3P_52;
}

// L_1800052836_LineConfig
object line_configuration {
	name L_1800052836_LineConfig;
	conductor_A OHCond_397_AAC_C;
	conductor_B OHCond_397_AAC_C;
	conductor_C OHCond_397_AAC_C;
	spacing OHSpacing_HORIZONTAL_3P_52;
}

// L_1800092089_LineConfig
object line_configuration {
	name L_1800092089_LineConfig;
	conductor_A OHCond_6_CU_C;
	conductor_B OHCond_6_CU_C;
	spacing OHSpacing_HORIZONTAL_2P_52;
}

// L_1800038507_LineConfig
object line_configuration {
	name L_1800038507_LineConfig;
	conductor_A OHCond_6_CU_C;
	conductor_B OHCond_6_CU_C;
	conductor_C OHCond_6_CU_C;
	spacing OHSpacing_HORIZONTAL_3P_52;
}

// L_1800052898_LineConfig
object line_configuration {
	name L_1800052898_LineConfig;
	conductor_A OHCond_6_CU_C;
	conductor_B OHCond_6_CU_C;
	spacing OHSpacing_HORIZONTAL_2P_88;
}

// L_1800078256_LineConfig
object line_configuration {
	name L_1800078256_LineConfig;
	conductor_A OHCond_4/0_AAC_C;
	conductor_B OHCond_4/0_AAC_C;
	conductor_C OHCond_4/0_AAC_C;
	spacing OHSpacing_TRIANGULAR_3P_35;
}

// L_1800053397_LineConfig
object line_configuration {
	name L_1800053397_LineConfig;
	conductor_A OHCond_6_CU_C;
	conductor_B OHCond_6_CU_C;
	spacing OHSpacing_HORIZONTAL_2P_52;
}

// L_1800020413_LineConfig
object line_configuration {
	name L_1800020413_LineConfig;
	conductor_A OHCond_6_CU_C;
	conductor_B OHCond_6_CU_C;
	conductor_C OHCond_6_CU_C;
	spacing OHSpacing_HORIZONTAL_3P_52;
}

// L_1800004018_LineConfig
object line_configuration {
	name L_1800004018_LineConfig;
	conductor_A OHCond_6_CU_C;
	conductor_B OHCond_6_CU_C;
	spacing OHSpacing_HORIZONTAL_2P_88;
}

// L_1800004013_LineConfig
object line_configuration {
	name L_1800004013_LineConfig;
	conductor_A OHCond_6_CU_C;
	conductor_B OHCond_6_CU_C;
	conductor_C OHCond_6_CU_C;
	spacing OHSpacing_HORIZONTAL_3P_52;
}

// L_1800053071_LineConfig
object line_configuration {
	name L_1800053071_LineConfig;
	conductor_A OHCond_715_AAC_C;
	conductor_B OHCond_715_AAC_C;
	conductor_C OHCond_715_AAC_C;
	spacing OHSpacing_HORIZONTAL_3P_35;
}

// L_1800053353_LineConfig
object line_configuration {
	name L_1800053353_LineConfig;
	conductor_A OHCond_6_CU_C;
	conductor_B OHCond_6_CU_C;
	conductor_C OHCond_6_CU_C;
	spacing OHSpacing_HORIZONTAL_3P_52;
}

// L_1800052833_LineConfig
object line_configuration {
	name L_1800052833_LineConfig;
	conductor_A OHCond_6_CU_C;
	conductor_B OHCond_6_CU_C;
	spacing OHSpacing_HORIZONTAL_2P_35;
}

// L_1800038494_LineConfig
object line_configuration {
	name L_1800038494_LineConfig;
	conductor_A OHCond_6_CU_C;
	conductor_B OHCond_6_CU_C;
	spacing OHSpacing_HORIZONTAL_2P_88;
}

// L_1800031455_LineConfig
object line_configuration {
	name L_1800031455_LineConfig;
	conductor_A OHCond_6_CU_C;
	conductor_B OHCond_6_CU_C;
	spacing OHSpacing_HORIZONTAL_2P_88;
}

// L_1800053383_LineConfig
object line_configuration {
	name L_1800053383_LineConfig;
	conductor_A OHCond_6_CU_C;
	conductor_B OHCond_6_CU_C;
	conductor_C OHCond_6_CU_C;
	spacing OHSpacing_TRIANGULAR_3P_35;
}

// L_1800006535_LineConfig
object line_configuration {
	name L_1800006535_LineConfig;
	conductor_A OHCond_6_CU_C;
	conductor_B OHCond_6_CU_C;
	spacing OHSpacing_HORIZONTAL_2P_88;
}

// L_1800053508_LineConfig
object line_configuration {
	name L_1800053508_LineConfig;
	conductor_A OHCond_715_AAC_C;
	conductor_B OHCond_715_AAC_C;
	conductor_C OHCond_715_AAC_C;
	spacing OHSpacing_HORIZONTAL_3P_52;
}

// L_1800020415_LineConfig
object line_configuration {
	name L_1800020415_LineConfig;
	conductor_A OHCond_4/0_AAC_C;
	conductor_B OHCond_4/0_AAC_C;
	conductor_C OHCond_4/0_AAC_C;
	spacing OHSpacing_HORIZONTAL_3P_52;
}

// L_1800040381_LineConfig
object line_configuration {
	name L_1800040381_LineConfig;
	conductor_A OHCond_6_CU_C;
	conductor_B OHCond_6_CU_C;
	conductor_C OHCond_6_CU_C;
	spacing OHSpacing_HORIZONTAL_3P_52;
}

// L_1800005578_LineConfig
object line_configuration {
	name L_1800005578_LineConfig;
	conductor_A OHCond_2_CU_C;
	conductor_B OHCond_2_CU_C;
	conductor_C OHCond_2_CU_C;
	spacing OHSpacing_HORIZONTAL_3P_52;
}

// L_1800053338_LineConfig
object line_configuration {
	name L_1800053338_LineConfig;
	conductor_A OHCond_6_CU_C;
	conductor_B OHCond_6_CU_C;
	spacing OHSpacing_HORIZONTAL_2P_52;
}

// L_1800018607_LineConfig
object line_configuration {
	name L_1800018607_LineConfig;
	conductor_A OHCond_715_AAC_C;
	conductor_B OHCond_715_AAC_C;
	conductor_C OHCond_715_AAC_C;
	spacing OHSpacing_HORIZONTAL_3P_52;
}

// L_1800053045_LineConfig
object line_configuration {
	name L_1800053045_LineConfig;
	conductor_A OHCond_6_CU_C;
	conductor_B OHCond_6_CU_C;
	spacing OHSpacing_HORIZONTAL_2P_88;
}

// L_1800053073_LineConfig
object line_configuration {
	name L_1800053073_LineConfig;
	conductor_A OHCond_6_CU_C;
	conductor_B OHCond_6_CU_C;
	conductor_C OHCond_6_CU_C;
	spacing OHSpacing_HORIZONTAL_3P_52;
}

// L_1800052911_LineConfig
object line_configuration {
	name L_1800052911_LineConfig;
	conductor_A OHCond_6_CU_C;
	conductor_B OHCond_6_CU_C;
	spacing OHSpacing_HORIZONTAL_2P_88;
}

// L_1800015997_LineConfig
object line_configuration {
	name L_1800015997_LineConfig;
	conductor_A OHCond_6_CU_C;
	conductor_B OHCond_6_CU_C;
	conductor_C OHCond_6_CU_C;
	spacing OHSpacing_HORIZONTAL_3P_52;
}

// L_1800053370_LineConfig
object line_configuration {
	name L_1800053370_LineConfig;
	conductor_A OHCond_6_CU_C;
	conductor_B OHCond_6_CU_C;
	spacing OHSpacing_HORIZONTAL_2P_88;
}

// L_1800053410_LineConfig
object line_configuration {
	name L_1800053410_LineConfig;
	conductor_A OHCond_6_CU_C;
	conductor_B OHCond_6_CU_C;
	conductor_C OHCond_6_CU_C;
	spacing OHSpacing_HORIZONTAL_3P_52;
}

// L_1800052758_LineConfig
object line_configuration {
	name L_1800052758_LineConfig;
	conductor_A OHCond_6_CU_C;
	conductor_B OHCond_6_CU_C;
	spacing OHSpacing_HORIZONTAL_2P_88;
}

// L_1800038493_LineConfig
object line_configuration {
	name L_1800038493_LineConfig;
	conductor_A OHCond_715_AAC_C;
	conductor_B OHCond_715_AAC_C;
	conductor_C OHCond_715_AAC_C;
	spacing OHSpacing_HORIZONTAL_3P_52;
}

// L_1800053367_LineConfig
object line_configuration {
	name L_1800053367_LineConfig;
	conductor_A OHCond_6_CU_C;
	conductor_B OHCond_6_CU_C;
	spacing OHSpacing_HORIZONTAL_2P_88;
}

// L_1800052777_LineConfig
object line_configuration {
	name L_1800052777_LineConfig;
	conductor_A OHCond_2_CU_C;
	conductor_B OHCond_2_CU_C;
	conductor_C OHCond_2_CU_C;
	spacing OHSpacing_HORIZONTAL_3P_52;
}

// L_1800053004_LineConfig
object line_configuration {
	name L_1800053004_LineConfig;
	conductor_A OHCond_4_ACSR_C;
	conductor_B OHCond_4_ACSR_C;
	spacing OHSpacing_HORIZONTAL_2P_88;
}

// L_1800005737_LineConfig
object line_configuration {
	name L_1800005737_LineConfig;
	conductor_A OHCond_4/0_AAC_C;
	conductor_B OHCond_4/0_AAC_C;
	conductor_C OHCond_4/0_AAC_C;
	spacing OHSpacing_HORIZONTAL_3P_52;
}

// L_1800053401_LineConfig
object line_configuration {
	name L_1800053401_LineConfig;
	conductor_A OHCond_6_CU_C;
	conductor_B OHCond_6_CU_C;
	spacing OHSpacing_HORIZONTAL_2P_52;
}

// L_1800034880_LineConfig
object line_configuration {
	name L_1800034880_LineConfig;
	conductor_A OHCond_6_CU_C;
	conductor_B OHCond_6_CU_C;
	spacing OHSpacing_HORIZONTAL_2P_88;
}

// L_1800038319_LineConfig
object line_configuration {
	name L_1800038319_LineConfig;
	conductor_A OHCond_6_CU_C;
	conductor_B OHCond_6_CU_C;
	conductor_C OHCond_6_CU_C;
	spacing OHSpacing_HORIZONTAL_3P_56;
}

// L_1800053500_LineConfig
object line_configuration {
	name L_1800053500_LineConfig;
	conductor_A OHCond_6_CU_C;
	conductor_B OHCond_6_CU_C;
	conductor_C OHCond_6_CU_C;
	spacing OHSpacing_HORIZONTAL_3P_88;
}

// L_1800053408_LineConfig
object line_configuration {
	name L_1800053408_LineConfig;
	conductor_A OHCond_6_CU_C;
	conductor_B OHCond_6_CU_C;
	conductor_C OHCond_6_CU_C;
	spacing OHSpacing_HORIZONTAL_3P_52;
}

// L_1800034875_LineConfig
object line_configuration {
	name L_1800034875_LineConfig;
	conductor_A OHCond_6_CU_C;
	conductor_B OHCond_6_CU_C;
	spacing OHSpacing_HORIZONTAL_2P_88;
}

// L_1800005579_LineConfig
object line_configuration {
	name L_1800005579_LineConfig;
	conductor_A OHCond_4/0_AAC_C;
	conductor_B OHCond_4/0_AAC_C;
	conductor_C OHCond_4/0_AAC_C;
	spacing OHSpacing_HORIZONTAL_3P_52;
}

// L_1800040332_LineConfig
object line_configuration {
	name L_1800040332_LineConfig;
	conductor_A OHCond_6_CU_C;
	conductor_B OHCond_6_CU_C;
...